test/testfiles/synthetic_data_v33b.raw
 0,    100.00, 33, 0, 0, 60.00       / May 16, 2017 17:17:11; Simulator Version 20 Beta; BuildDate 2017_5_15
This is a reduced version of a synthetic power system model that was developed as part of the US ARPA-E Grid Data research project and contains no CEII.
Reference: A.B. Birchfield, T. Xu, K.M. Gegner, K.S. Shetye, and T.J. Overbye, "Grid Structural Characteristics as Validation Criteria for Synthetic Networks", IEEE Transactions on Power Systems, 2017.
    1,'WINNSBORO 0 ', 138.0000,1,   1,   2,   1,1.01215947, -10.768348, 1.10000, 0.90000, 1.10000, 0.90000
  500,'MC CORMICK 0', 138.0000,1,   1,   2,   1,1.01686382, -13.971591, 1.10000, 0.90000, 1.10000, 0.90000
0 / END OF BUS DATA, BEGIN LOAD DATA
    2,'1 ',1,   1,   2,    42.801,    11.414,     0.000,     0.000,     0.000,     0.000,   1,1
  500,'2 ',1,   1,   2,    19.698,     5.253,     0.000,     0.000,     0.000,     0.000,   1,1
0 / END OF LOAD DATA, BEGIN FIXED SHUNT DATA
0 / END OF FIXED SHUNT DATA, BEGIN GENERATOR DATA
    9,'1 ',   771.800,   105.747,   359.659,   -94.160,1.04000,    0,   926.160,   0.00000,   0.17160,   0.00000,   0.00000,1.00000,1,  100.0,   771.800,   231.540,   1,1.0000,   0,1.0000,   0,1.0000,   0,1.0000,0, 1.0000
  498,'1 ',    18.000,     6.912,     6.912,    -0.882,1.04000,    0,    21.600,   0.00000,   0.11760,   0.00000,   0.00000,1.00000,1,  100.0,    18.000,     5.400,   1,1.0000,   0,1.0000,   0,1.0000,   0,1.0000,0, 1.0000
0 / END OF GENERATOR DATA, BEGIN BRANCH DATA
     2,     1,'1 ',5.30993E-4,3.13968E-3,0.00000E0,  76.50,   0.00,   0.00,  0.00000,  0.00000,  0.00000,  0.00000,1,1,   0.0,   1,1.0000,   0,1.0000,   0,1.0000,   0,1.0000
   500,   489,'1 ',4.69552E-3,4.30732E-2,1.52641E-2, 320.29,   0.00,   0.00,  0.00000,  0.00000,  0.00000,  0.00000,1,1,   0.0,   1,1.0000,   0,1.0000,   0,1.0000,   0,1.0000
0 / END OF BRANCH DATA, BEGIN TRANSFORMER DATA
     8,     7,    0,'1 ',1,1,1,0.00000E0,0.00000E0,2,'            ',1,   1,1.0000,   0,1.0000,   0,1.0000,   0,1.0000,'            '
3.55062E-4,1.29000E-2, 100.00
1.000000,138.000,   0.000, 567.00,   0.00,   0.00,0,     0,1.500000,0.510000,1.500000,0.510000,159, 0, 0.00000, 0.00000,  0.000
1.000000,345.000
   498,   496,    0,'1 ',1,1,1,0.00000E0,0.00000E0,2,'            ',1,   1,1.0000,   0,1.0000,   0,1.0000,   0,1.0000,'            '
4.00610E-3,1.17550E-1, 100.00
1.000000, 13.800,   0.000, 150.00,   0.00,   0.00,0,     0,1.500000,0.510000,1.500000,0.510000,159, 0, 0.00000, 0.00000,  0.000
1.000000,138.000
0 / END OF TRANSFORMER DATA, BEGIN AREA DATA
